2mgs/circuit_plusmg_0.dss
clear
set defaultbasefrequency=60
new object=circuit.lehigh basekv=115 pu=1.0001 phases=3 bus1=sourcebus angle=30 mvasc3=20000 mvasc1=21000
edit object=vsource.source basekv=115 bus1=sourcebus.1.2.3 pu=1.00 r1=0 x1=0.0001 r0=0 x0=0.0001
new object=vsource.secondsource basekv=4.16 bus1=680.1.2.3 pu=1.00 r1=0 x1=0.0001 r0=0 x0=0.0001
new object=transformer.sub phases=3 windings=2 xhl=0.008 buses=[sourcebus.1.2.3,650.1.2.3] conns=[delta,wye] kvs=[115,4.16] kvas=[5000,5000] %rs=[0.0005,0.0005]
new object=transformer.reg1 phases=1 bank=reg1 xhl=0.01 kvas=[1666,1666] buses=[650.1,rg60.1] kvs=[2.4,2.4] %loadloss=0.01
new object=regcontrol.reg1 transformer=reg1 winding=2 vreg=121 band=2 ptratio=20 ctprim=700 r=3 x=9
new object=transformer.reg2 phases=1 bank=reg1 xhl=0.01 kvas=[1666,1666] buses=[650.2,rg60.2] kvs=[2.4,2.4] %loadloss=0.01
new object=regcontrol.reg2 transformer=reg2 winding=2 vreg=121 band=2 ptratio=20 ctprim=700 r=3 x=9
new object=transformer.reg3 phases=1 bank=reg1 xhl=0.01 kvas=[1666,1666] buses=[650.3,rg60.3] kvs=[2.4,2.4] %loadloss=0.01
new object=regcontrol.reg3 transformer=reg3 winding=2 vreg=121 band=2 ptratio=20 ctprim=700 r=3 x=9
new object=transformer.xfm1 phases=3 windings=2 xhl=2 buses=[633.1.2.3,634.1.2.3] conns=[wye,wye] kvs=[4.16,0.480] kvas=[500,500] %rs=[0.55,0.55] xht=1 xlt=1
new object=linecode.mtx601 nphases=3 basefreq=60 rmatrix=[0.3465|0.1560,0.3375|0.1580,0.1535,0.3414] xmatrix=[1.0179|0.5017,1.0478|0.4236,0.3849,1.0348] units=mi
new object=linecode.mtx602 nphases=3 basefreq=60 rmatrix=[0.7526|0.1580,0.7475|0.1560,0.1535,0.7436] xmatrix=[1.1814|0.4236,1.1983|0.5017,0.3849,1.2112] units=mi
new object=linecode.mtx603 nphases=2 basefreq=60 rmatrix=[1.3238|0.2066,1.3294] xmatrix=[1.3569|0.4591,1.3471] units=mi
new object=linecode.mtx604 nphases=2 basefreq=60 rmatrix=[1.3238|0.2066,1.3294] xmatrix=[1.3569|0.4591,1.3471] units=mi
new object=linecode.mtx605 nphases=1 basefreq=60 rmatrix=[1.3292] xmatrix=[1.3475] units=mi
new object=linecode.mtx606 nphases=3 units=mi rmatrix=[0.791721|0.318476,0.781649|0.28345,0.318476,0.791721] xmatrix=[0.438352|0.0276838,0.396697|-0.0184204,0.0276838,0.438352] cmatrix=[383.948|0,383.948|0,0,383.948]
new object=linecode.mtx607 nphases=1 basefreq=60 rmatrix=[1.3425] xmatrix=[0.5124] cmatrix=[236] units=mi
new object=loadshape.solar_634_shape npts=8760 interval=1 useactual=yes mult=[0.0,0.0,0.0,0.0,0.0,0.0,0.0,0.0,8.5,25.771,36.379,111.789,25.635,59.907,89.62200000000001,96.49,48.21100000000001,3.196,0.0,0.0,0.0,0.0,0.0,0.0,0.0,0.0,0.0,0.0,0.0,0.0,0.0,0.0,22.303,56.643,79.286,3.128000000000001,170.2,60.858999999999995,220.995,151.976,80.238,6.868000000000001,0.0,0.0,0.0,0.0,0.0,0.0,0.0,0.0,0.0,0.0,0.0,0.0,0.0,0.0,65.414,152.52,202.635,85.882,152.724,152.316,124.43700000000001,108.04900000000002,56.711000000000006,4.488,0.0,0.0,0.0,0.0,0.0,0.0,0.0,0.0,0.0,0.0,0.0,0.0,0.0,0.0,99.54999999999998,228.067,323.808,383.579,406.358,395.61400000000003,348.015,266.758,145.381,28.559,0.0,0.0,0.0,0.0,0.0,0.0,0.0,0.0,0.0,0.0,0.0,0.0,0.0,0.0,108.253,241.53,339.856,399.42199999999997,421.18199999999996,406.29,355.291,270.83799999999997,146.741,27.879000000000005,0.0,0.0,0.0,0.0,0.0,0.0,0.0,0.0,0.0,0.0,0.0,0.0,0.0,0.0,85.542,202.567,317.552,284.573,321.7,331.832,333.125,252.75,136.813,25.566999999999997,0.0,0.0,0.0,0.0,0.0,0.0,0.0,0.0,0.0,0.0,0.0,0.0,0.0,0.0,86.834,86.22200000000001,308.101,353.38800000000003,316.465,303.001,255.40200000000002,130.55700000000002,68.95,7.344000000000001,0.0,0.0,0.0,0.0,0.0,0.0,0.0,0.0,0.0,0.0,0.0,0.0,0.0,0.0,88.398,206.10299999999998,54.398999999999994,71.67,160.408,185.84,152.248,98.666,52.35900000000001,6.0520000000000005,0.0,0.0,0.0,0.0,0.0,0.0,0.0,0.0,0.0,0.0,0.0,0.0,0.0,0.0,90.846,208.551,111.789,237.79,186.248,86.97,111.51700000000001,93.294,48.347,22.846999999999998,0.0,0.0,0.0,0.0,0.0,0.0,0.0,0.0,0.0,0.0,0.0,0.0,0.0,0.0,42.091,104.038,167.61599999999999,287.29400000000004,166.732,217.731,221.13100000000003,178.428,99.54999999999998,17.476,0.0,0.0,0.0,0.0,0.0,0.0,0.0,0.0,0.0,0.0,0.0,0.0,0.0,0.0,109.613,242.618,339.584,397.995,419.48199999999997,406.35900000000004,358.89599999999996,279.405,165.84799999999998,40.867,0.0,0.0,0.0,0.0,0.0,0.0,0.0,0.0,0.0,0.0,0.0,0.0,0.0,0.0,101.25,229.97000000000003,322.72,391.33099999999996,415.26599999999996,406.019,359.78,272.402,161.972,40.255,0.0,0.0,0.0,0.0,0.0,0.0,0.0,0.0,0.0,0.0,0.0,0.0,0.0,0.0,99.074,227.386,320.205,295.385,327.88800000000003,298.173,269.07,214.671,127.361,30.803,0.0,0.0,0.0,0.0,0.0,0.0,0.0,0.0,0.0,0.0,0.0,0.0,0.0,0.0,41.275,97.78200000000001,177.204,225.891,258.802,237.518,140.485,114.37299999999999,64.53,10.54,0.0,0.0,0.0,0.0,0.0,0.0,0.0,0.0,0.0,0.0,0.0,0.0,0.0,0.0,21.759,58.41100000000001,271.314,338.224,390.65100000000007,387.523,346.18,270.29400000000004,157.55200000000002,39.847,0.0,0.0,0.0,0.0,0.0,0.0,0.0,0.0,0.0,0.0,0.0,0.0,0.0,0.0,90.098,209.36700000000002,295.317,249.75799999999998,293.54900000000004,382.219,230.991,105.534,59.091,10.675999999999998,0.0,0.0,0.0,0.0,0.0,0.0,0.0,0.0,0.0,0.0,0.0,0.0,0.0,0.0,93.15799999999999,224.054,327.072,398.60600000000005,413.77099999999996,403.163,358.01199999999994,281.717,164.96400000000003,42.975,0.0,0.0,0.0,0.0,0.0,0.0,0.0,0.0,0.0,0.0,0.0,0.0,0.0,0.0,101.726,229.155,331.56,392.691,417.17000000000013,406.699,365.01599999999996,285.797,167.888,44.335,0.0,0.0,0.0,0.0,0.0,0.0,0.0,0.0,0.0,0.0,0.0,0.0,0.0,0.0,107.302,240.579,337.408,395.07099999999997,432.81,421.726,374.807,286.681,176.388,48.347,0.0,0.0,0.0,0.0,0.0,0.0,0.0,0.0,0.0,0.0,0.0,0.0,0.0,0.0,105.33,234.935,328.5,384.667,405.67800000000005,393.50699999999995,350.80400000000003,276.617,167.61599999999999,45.083,0.0,0.0,0.0,0.0,0.0,0.0,0.0,0.0,0.0,0.0,0.0,0.0,0.0,0.0,27.131000000000004,67.93,102.882,58.751000000000005,170.33599999999998,45.423,47.39500000000001,0.68,0.0,0.0,0.0,0.0,0.0,0.0,0.0,0.0,0.0,0.0,0.0,0.0,0.0,0.0,0.0,0.0,25.023000000000003,73.506,207.736,221.87900000000002,418.87,409.82599999999996,193.65900000000002,168.024,97.714,21.691,0.0,0.0,0.0,0.0,0.0,0.0,0.0,0.0,0.0,0.0,0.0,0.0,0.0,0.0,28.287000000000006,73.37,85.27,212.22299999999998,447.769,440.221,392.895,310.14099999999996,187.132,53.038999999999994,0.0,0.0,0.0,0.0,0.0,0.0,0.0,0.0,0.0,0.0,0.0,0.0,0.0,0.0,112.197,247.03799999999998,344.276,402.55,426.82599999999996,416.49,373.04,295.725,185.22800000000004,54.263000000000005,0.0,0.0,0.0,0.0,0.0,0.0,0.0,0.0,0.0,0.0,0.0,0.0,0.0,0.0,106.89400000000002,236.09099999999998,328.43199999999996,384.939,408.126,396.974,356.44699999999995,284.437,177.81599999999997,52.42699999999999,0.0,0.0,0.0,0.0,0.0,0.0,0.0,0.0,0.0,0.0,0.0,0.0,0.0,0.0,70.922,162.584,187.40400000000002,278.181,311.433,298.445,271.722,199.847,122.39700000000002,34.951,0.0,0.0,0.0,0.0,0.0,0.0,0.0,0.0,0.0,0.0,0.0,0.0,0.0,0.0,84.318,196.99099999999999,190.872,354.54400000000004,374.059,271.382,37.671,263.834,155.852,43.858999999999995,0.0,0.0,0.0,0.0,0.0,0.0,0.0,0.0,0.0,0.0,0.0,0.0,0.0,0.0,23.866999999999997,38.419000000000004,57.935,89.554,70.718,49.095,49.77499999999999,19.312,9.927999999999999,0.204,0.0,0.0,0.0,0.0,0.0,0.0,0.0,0.0,0.0,0.0,0.0,0.0,0.0,0.0,112.333,244.795,340.80800000000005,400.171,424.37800000000004,414.926,375.41900000000004,301.709,185.704,58.819,0.0,0.0,0.0,0.0,0.0,0.0,0.0,0.0,0.0,0.0,0.0,0.0,0.0,0.0,106.689,235.887,330.064,386.639,410.30200000000013,401.871,361.88800000000003,232.283,154.56,58.41100000000001,0.0,0.0,0.0,0.0,0.0,0.0,0.0,0.0,0.0,0.0,0.0,0.0,0.0,0.0,33.319,102.20200000000001,174.00799999999998,176.11599999999999,226.571,213.99099999999999,193.18400000000003,138.989,85.27,24.479,0.0,0.0,0.0,0.0,0.0,0.0,0.0,0.0,0.0,0.0,0.0,0.0,0.0,0.0,112.265,246.766,349.716,409.69,434.986,427.43800000000005,383.91900000000004,309.46,192.707,64.327,0.0,0.0,0.0,0.0,0.0,0.0,0.0,0.0,0.0,0.0,0.0,0.0,0.0,0.0,112.67300000000002,240.239,333.26,390.515,413.839,407.44599999999997,368.959,298.649,192.64,65.55,0.0,0.0,0.0,0.0,0.0,0.0,0.0,0.0,0.0,0.0,0.0,0.0,0.0,0.0,111.85700000000001,97.03400000000002,227.59099999999998,282.805,322.72,316.124,272.33299999999997,77.994,56.371,37.195,0.0,0.0,0.0,0.0,0.0,0.0,0.0,0.0,0.0,0.0,0.0,0.0,0.0,0.0,0.0,86.426,233.03,326.801,425.80699999999996,425.466,389.835,317.009,200.051,70.378,0.0,0.0,0.0,0.0,0.0,0.0,0.0,0.0,0.0,0.0,0.0,0.0,0.0,0.0,80.782,215.419,322.244,430.43,363.723,408.874,401.394,311.77299999999997,120.49299999999998,58.615,0.0,0.0,0.0,0.0,0.0,0.0,0.0,0.0,0.0,0.0,0.0,0.0,0.0,0.0,59.431000000000004,78.878,59.431000000000004,89.554,59.295,247.583,225.483,163.672,56.847,7.820000000000001,0.0,0.0,0.0,0.0,0.0,0.0,0.0,0.0,0.0,0.0,0.0,0.0,0.0,0.0,4.42,28.559,44.675,159.865,192.43500000000003,89.62200000000001,129.809,56.575,34.339,64.666,0.0,0.0,0.0,0.0,0.0,0.0,0.0,0.0,0.0,0.0,0.0,0.0,0.0,0.0,28.151,26.791,103.902,203.519,186.65599999999998,233.507,255.19799999999998,307.76,198.963,71.398,0.0,0.0,0.0,0.0,0.0,0.0,0.0,0.0,0.0,0.0,0.0,0.0,0.0,0.0,22.575,57.32299999999999,107.23399999999998,399.35500000000013,149.869,149.053,169.18,127.29299999999999,3.128000000000001,66.366,0.0,0.0,0.0,0.0,0.0,0.0,0.0,0.0,0.0,0.0,0.0,0.0,0.0,0.0,36.107,160.476,346.86,414.042,437.094,434.986,395.274,321.768,208.27900000000002,78.538,0.0,0.0,0.0,0.0,0.0,0.0,0.0,0.0,0.0,0.0,0.0,0.0,0.0,11.492,132.393,264.242,362.024,419.346,443.35,434.10199999999986,394.663,322.584,215.419,82.55,0.0,0.0,0.0,0.0,0.0,0.0,0.0,0.0,0.0,0.0,0.0,0.0,0.0,11.695999999999998,127.633,254.65400000000002,346.52,402.55099999999993,426.55400000000003,420.094,395.07099999999997,313.065,207.87099999999998,80.03399999999999,0.0,0.0,0.0,0.0,0.0,0.0,0.0,0.0,0.0,0.0,0.0,0.0,0.0,14.755999999999998,134.161,264.31,367.939,412.478,435.05400000000003,365.49099999999993,346.588,265.67,209.77500000000003,45.287,0.0,0.0,0.0,0.0,0.0,0.0,0.0,0.0,0.0,0.0,0.0,0.0,0.0,0.272,74.52600000000001,170.608,241.122,274.51,324.012,342.916,228.06599999999997,200.595,142.185,48.21100000000001,0.0,0.0,0.0,0.0,0.0,0.0,0.0,0.0,0.0,0.0,0.0,0.0,0.0,3.264,120.085,240.783,337.408,396.295,420.774,414.314,377.79900000000004,305.381,195.42700000000002,75.546,0.0,0.0,0.0,0.0,0.0,0.0,0.0,0.0,0.0,0.0,0.0,0.0,0.0,0.0,17.884,25.363000000000003,80.442,112.537,120.01700000000001,145.313,92.54600000000002,80.306,85.47399999999999,31.755,0.0,0.0,0.0,0.0,0.0,0.0,0.0,0.0,0.0,0.0,0.0,0.0,0.0,0.0,1.972,87.71799999999999,156.056,202.023,305.517,349.10400000000004,273.149,337.885,127.49700000000001,43.655,0.0,0.0,0.0,0.0,0.0,0.0,0.0,0.0,0.0,0.0,0.0,0.0,0.0,14.347999999999999,44.538999999999994,96.014,169.248,234.255,453.07300000000004,437.434,398.538,327.548,220.995,89.146,0.0,0.0,0.0,0.0,0.0,0.0,0.0,0.0,0.0,0.0,0.0,0.0,0.0,18.36,136.201,263.426,354.61199999999997,410.30200000000013,430.09,421.59,385.551,316.737,213.99099999999999,86.766,0.0,0.0,0.0,0.0,0.0,0.0,0.0,0.0,0.0,0.0,0.0,0.0,0.0,16.727999999999998,51.815,216.779,261.998,405.20299999999986,426.486,418.93800000000005,382.491,313.949,212.427,82.48200000000001,0.0,0.0,0.0,0.0,0.0,0.0,0.0,0.0,0.0,0.0,0.0,0.0,0.0,7.412000000000001,27.539,135.52100000000002,127.49700000000001,176.048,241.667,197.05900000000003,251.39,123.89299999999999,38.623000000000005,0.068,0.0,0.0,0.0,0.0,0.0,0.0,0.0,0.0,0.0,0.0,0.0,0.0,0.0,0.0,3.536,1.7679999999999998,21.284000000000002,138.037,95.81,221.063,239.83,158.776,17.408,81.598,0.0,0.0,0.0,0.0,0.0,0.0,0.0,0.0,0.0,0.0,0.0,0.0,0.0,24.546999999999997,153.812,291.16900000000004,390.039,451.645,474.15300000000013,448.44999999999993,409.75800000000004,337.408,231.60300000000004,97.918,0.0,0.0,0.0,0.0,0.0,0.0,0.0,0.0,0.0,0.0,0.0,0.0,0.0,25.975000000000005,150.82,277.298,367.59899999999993,422.406,444.30199999999996,435.05400000000003,396.907,327.75199999999995,224.327,94.45,0.0,0.0,0.0,0.0,0.0,0.0,0.0,0.0,0.0,0.0,0.0,0.0,0.0,17.272000000000002,136.541,214.195,295.861,358.89599999999996,359.1,359.236,215.351,150.888,206.851,90.64200000000001,0.0,0.0,0.0,0.0,0.0,0.0,0.0,0.0,0.0,0.0,0.0,0.0,0.0,9.86,83.978,188.695,225.278,274.51,267.914,330.608,245.74599999999998,124.097,38.827,38.486999999999995,0.0,0.0,0.0,0.0,0.0,0.0,0.0,0.0,0.0,0.0,0.0,0.0,0.0,21.08,103.35799999999999,139.261,230.718,320.408,315.98900000000003,290.76099999999997,251.73,243.435,141.30100000000002,32.775,0.0,0.0,0.0,0.0,0.0,0.0,0.0,0.0,0.0,0.0,0.0,0.0,0.0,11.22,62.219,164.012,169.248,211.815,257.782,299.329,264.242,234.051,169.72400000000002,52.699,0.0,0.0,0.0,0.0,0.0,0.0,0.0,0.0,0.0,0.0,0.0,0.0,0.0,30.327000000000005,153.268,274.849,361.88800000000003,410.98300000000006,444.846,431.79,388.475,313.269,204.947,89.01,0.0,0.0,0.0,0.0,0.0,0.0,0.0,0.0,0.0,0.0,0.0,0.0,0.0,33.183,164.21599999999998,296.202,391.46699999999987,449.74200000000013,472.181,462.93300000000005,379.635,348.56,221.267,106.214,0.0,0.0,0.0,0.0,0.0,0.0,0.0,0.0,0.0,0.0,0.0,0.0,0.0,32.299,150.141,256.218,392.14700000000005,444.30199999999996,463.205,449.94599999999997,401.327,312.181,207.87099999999998,89.35,0.0,0.0,0.0,0.0,0.0,0.0,0.0,0.0,0.0,0.0,0.0,0.0,0.0,34.339,15.368,300.21299999999997,131.509,161.02,222.083,475.037,423.902,349.716,234.86700000000002,105.806,0.0,0.0,0.0,0.0,0.0,0.0,0.0,0.0,0.0,0.0,0.0,0.0,0.0,38.010999999999996,169.112,293.889,381.0630000000001,434.10199999999986,455.045,447.63400000000007,406.903,339.108,235.47900000000004,106.214,0.0,0.0,0.0,0.0,0.0,0.0,0.0,0.0,0.0,0.0,0.0,0.0,0.0,40.323,178.768,309.053,404.319,461.301,483.19699999999995,472.11300000000006,430.634,345.704,242.00599999999997,110.837,5.644000000000001,0.0,0.0,0.0,0.0,0.0,0.0,0.0,0.0,0.0,0.0,0.0,0.0,40.799,174.416,303.069,392.079,443.282,446.07,436.89,396.907,324.89599999999996,226.775,102.134,3.8760000000000003,0.0,0.0,0.0,0.0,0.0,0.0,0.0,0.0,0.0,0.0,0.0,0.0,40.119,156.804,296.949,387.65900000000005,438.99800000000005,456.40499999999986,450.286,390.175,321.157,222.287,99.686,3.468,0.0,0.0,0.0,0.0,0.0,0.0,0.0,0.0,0.0,0.0,0.0,0.0,42.091,172.24,295.385,385.755,438.521,461.77699999999993,453.889,414.314,344.82,232.963,106.214,6.120000000000001,0.0,0.0,0.0,0.0,0.0,0.0,0.0,0.0,0.0,0.0,0.0,0.0,38.283,148.033,295.317,343.596,433.76199999999994,450.35400000000004,439.61,399.62700000000007,327.004,167.48,102.20200000000001,5.167999999999999,0.0,0.0,0.0,0.0,0.0,0.0,0.0,0.0,0.0,0.0,0.0,0.0,42.839,167.548,227.047,262.814,279.202,409.07800000000003,442.126,272.81,322.72,218.955,101.046,4.624,0.0,0.0,0.0,0.0,0.0,0.0,0.0,0.0,0.0,0.0,0.0,0.0,36.515,131.033,252.68200000000002,375.827,430.90600000000006,343.528,375.62300000000005,324.624,295.045,214.195,102.474,5.78,0.0,0.0,0.0,0.0,0.0,0.0,0.0,0.0,0.0,0.0,0.0,0.0,31.959,114.101,114.441,65.074,175.232,237.65400000000002,441.922,402.278,334.144,233.167,104.85399999999998,7.547999999999999,0.0,0.0,0.0,0.0,0.0,0.0,0.0,0.0,0.0,0.0,0.0,0.0,49.435,179.44799999999998,299.533,290.421,437.162,453.20900000000006,446.34100000000007,408.602,340.264,238.81,109.137,8.908,0.0,0.0,0.0,0.0,0.0,0.0,0.0,0.0,0.0,0.0,0.0,0.0,51.611000000000004,179.04,293.54900000000004,374.12699999999995,433.966,454.29699999999997,442.19300000000004,351.144,335.98,229.019,108.865,8.84,0.0,0.0,0.0,0.0,0.0,0.0,0.0,0.0,0.0,0.0,0.0,0.0,50.93099999999999,175.708,256.89799999999997,278.249,356.788,397.723,355.56300000000005,345.772,295.045,144.97299999999998,69.494,3.468,0.0,0.0,0.0,0.0,0.0,0.0,0.0,0.0,0.0,0.0,0.0,0.0,7.071999999999999,29.511,46.647,87.92200000000001,47.12300000000001,31.279,107.302,148.645,11.288000000000002,84.11399999999999,39.915,0.068,0.0,0.0,0.0,0.0,0.0,0.0,0.0,0.0,0.0,0.0,0.0,0.0,28.151,87.58200000000001,140.145,131.305,196.515,159.864,150.345,164.148,158.164,48.823,22.575,0.0,0.0,0.0,0.0,0.0,0.0,0.0,0.0,0.0,0.0,0.0,0.0,0.0,8.363999999999999,35.427,132.257,191.551,323.33299999999997,443.75699999999995,358.351,348.288,325.712,142.185,68.27,4.08,0.0,0.0,0.0,0.0,0.0,0.0,0.0,0.0,0.0,0.0,0.0,0.0,60.451,65.618,201.54700000000003,319.72900000000004,454.29699999999997,472.92900000000003,467.965,432.062,361.276,132.597,66.91,5.507999999999999,0.0,0.0,0.0,0.0,0.0,0.0,0.0,0.0,0.0,0.0,0.0,0.0,72.078,218.207,345.63599999999997,436.414,486.461,503.528,494.89200000000005,448.654,371.95099999999996,261.522,122.39700000000002,13.328,0.0,0.0,0.0,0.0,0.0,0.0,0.0,0.0,0.0,0.0,0.0,0.0,71.194,210.387,328.63599999999997,409.35,454.09300000000013,466.53699999999986,463.06900000000013,417.44200000000006,344.344,242.82200000000003,117.97700000000002,12.716,0.0,0.0,0.0,0.0,0.0,0.0,0.0,0.0,0.0,0.0,0.0,0.0,70.31,204.47099999999998,318.165,413.022,461.57300000000004,255.13,472.793,429.00199999999995,358.42,246.426,120.765,15.164000000000001,0.0,0.0,0.0,0.0,0.0,0.0,0.0,0.0,0.0,0.0,0.0,0.0,69.29,200.86700000000002,316.124,397.791,213.71900000000002,363.85900000000004,370.523,278.726,178.02,138.513,68.33800000000001,6.459999999999999,0.0,0.0,0.0,0.0,0.0,0.0,0.0,0.0,0.0,0.0,0.0,0.0,7.683999999999998,17.0,18.632,63.103,140.281,192.368,247.44600000000003,195.224,193.18400000000003,91.594,45.96700000000001,2.9239999999999995,0.0,0.0,0.0,0.0,0.0,0.0,0.0,0.0,0.0,0.0,0.0,0.0,2.9919999999999995,12.852,48.143,74.73,77.382,82.686,56.847,64.191,55.283,30.191000000000006,13.94,0.0,0.0,0.0,0.0,0.0,0.0,0.0,0.0,0.0,0.0,0.0,0.0,0.0,1.2919999999999998,1.224,21.555,36.311,64.395,46.239,55.215,33.183,67.726,56.099,27.131000000000004,0.68,0.0,0.0,0.0,0.0,0.0,0.0,0.0,0.0,0.0,0.0,0.0,0.0,73.642,200.935,309.393,385.415,242.00599999999997,209.503,280.765,220.58700000000002,349.10400000000004,114.985,118.65700000000001,15.912000000000004,0.0,0.0,0.0,0.0,0.0,0.0,0.0,0.0,0.0,0.0,0.0,0.0,20.468,100.50200000000001,202.023,231.60300000000004,202.15900000000002,220.519,259.21,222.49100000000004,298.377,170.812,87.58200000000001,12.172,0.0,0.0,0.0,0.0,0.0,0.0,0.0,0.0,0.0,0.0,0.0,0.0,81.598,213.039,291.373,341.556,399.151,417.71400000000006,401.05400000000003,364.94700000000006,297.901,175.43599999999998,89.35,13.056,0.0,0.0,0.0,0.0,0.0,0.0,0.0,0.0,0.0,0.0,0.0,0.0,78.946,182.984,231.05900000000003,259.95799999999997,272.673,303.27299999999997,366.443,311.296,179.78799999999998,99.27799999999999,49.299,5.236000000000001,0.0,0.0,0.0,0.0,0.0,0.0,0.0,0.0,0.0,0.0,0.0,0.0,38.963,94.79000000000002,150.005,402.755,445.117,464.70099999999996,451.985,414.858,345.296,237.926,56.915000000000006,16.727999999999998,0.0,0.0,0.0,0.0,0.0,0.0,0.0,0.0,0.0,0.0,0.0,0.0,81.93799999999999,204.607,189.64700000000002,264.582,339.51599999999996,444.43699999999995,430.226,392.283,327.685,233.03,67.862,9.724,0.0,0.0,0.0,0.0,0.0,0.0,0.0,0.0,0.0,0.0,0.0,0.0,13.94,70.786,123.62100000000001,134.705,198.41900000000004,286.27299999999997,313.745,304.564,345.296,162.44799999999998,52.835,6.936,0.0,0.0,0.0,0.0,0.0,0.0,0.0,0.0,0.0,0.0,0.0,0.0,91.73,229.767,346.11199999999997,427.03,473.81300000000005,491.901,478.981,436.414,364.88,259.95799999999997,129.401,19.312,0.0,0.0,0.0,0.0,0.0,0.0,0.0,0.0,0.0,0.0,0.0,0.9520000000000001,93.70200000000001,223.44299999999998,335.708,402.89,449.674,467.08099999999996,471.705,414.51800000000003,345.228,246.15400000000002,125.389,19.992,0.0,0.0,0.0,0.0,0.0,0.0,0.0,0.0,0.0,0.0,0.0,3.468,98.12200000000001,230.242,340.468,417.374,459.465,472.31700000000006,461.029,422.67800000000005,355.7,254.926,130.965,21.284000000000002,0.0,0.0,0.0,0.0,0.0,0.0,0.0,0.0,0.0,0.0,0.0,2.516,84.65799999999999,163.4,246.63,277.298,344.95599999999996,296.269,388.88300000000004,211.067,220.655,240.986,118.113,19.244,0.0,0.0,0.0,0.0,0.0,0.0,0.0,0.0,0.0,0.0,0.0,0.0,78.334,120.90100000000001,112.469,124.301,197.399,257.442,153.404,143.817,147.761,91.73,27.811,11.356,0.0,0.0,0.0,0.0,0.0,0.0,0.0,0.0,0.0,0.0,0.0,0.0,31.415,93.906,89.01,424.58200000000005,482.925,504.07199999999995,478.43699999999995,439.338,368.347,263.358,130.217,21.351999999999997,0.0,0.0,0.0,0.0,0.0,0.0,0.0,0.0,0.0,0.0,0.0,7.683999999999998,108.32099999999998,249.622,373.244,457.085,506.51999999999987,521.956,505.228,457.901,371.475,196.447,107.437,22.983,0.0,0.0,0.0,0.0,0.0,0.0,0.0,0.0,0.0,0.0,0.0,8.024,108.661,245.338,360.46,438.38600000000014,484.149,498.83600000000007,483.67300000000006,440.49400000000014,367.259,255.81,132.869,23.594999999999995,0.0,0.0,0.0,0.0,0.0,0.0,0.0,0.0,0.0,0.0,0.0,9.452,111.721,246.562,354.0,427.23399999999987,468.509,481.02100000000013,465.925,425.398,358.01199999999994,257.238,133.07299999999998,22.983,0.0,0.0,0.0,0.0,0.0,0.0,0.0,0.0,0.0,0.0,0.0,10.132,109.681,242.89,353.18300000000005,427.71,411.594,488.56799999999987,475.173,434.986,364.94700000000006,254.858,132.189,23.255,0.0,0.0,0.0,0.0,0.0,0.0,0.0,0.0,0.0,0.0,0.0,10.744000000000002,106.214,234.187,239.966,215.351,242.278,108.933,339.856,424.03800000000007,349.784,248.194,124.641,23.663,0.0,0.0,0.0,0.0,0.0,0.0,0.0,0.0,0.0,0.0,0.0,10.404000000000002,103.086,148.645,265.60200000000003,410.71,353.184,472.385,457.69699999999995,420.63799999999986,355.02,256.83,131.033,24.003,0.0,0.0,0.0,0.0,0.0,0.0,0.0,0.0,0.0,0.0,0.0,12.104000000000001,104.92199999999998,225.68599999999998,268.798,326.937,143.545,308.985,390.855,327.41200000000003,190.532,123.62100000000001,57.799,22.099,0.0,0.0,0.0,0.0,0.0,0.0,0.0,0.0,0.0,0.0,0.0,10.132,17.816,71.602,93.15799999999999,115.18899999999998,219.159,324.829,192.77599999999998,181.42,109.545,91.594,55.215,24.003,0.0,0.0,0.0,0.0,0.0,0.0,0.0,0.0,0.0,0.0,0.0,6.528,37.467,240.579,255.878,304.497,323.128,304.769,342.98400000000004,306.33299999999997,286.749,198.55599999999998,127.97299999999998,26.043,0.0,0.0,0.0,0.0,0.0,0.0,0.0,0.0,0.0,0.0,0.0,0.68,6.324,25.703000000000003,39.643,41.071000000000005,65.55,80.918,188.695,166.25599999999997,126.001,81.53,23.323,0.0,0.0,0.0,0.0,0.0,0.0,0.0,0.0,0.0,0.0,0.0,0.0,16.456,120.28900000000002,251.662,350.531,419.61800000000005,460.89299999999986,473.881,460.145,423.29,355.42800000000005,258.394,136.94899999999998,26.519000000000002,0.0,0.0,0.0,0.0,0.0,0.0,0.0,0.0,0.0,0.0,0.0,17.884,120.357,244.046,343.392,412.68200000000013,376.099,470.277,452.39300000000003,415.06300000000005,346.86,77.926,134.909,27.607,0.0,0.0,0.0,0.0,0.0,0.0,0.0,0.0,0.0,0.0,0.0,18.36,124.369,259.346,369.50300000000004,445.72900000000004,489.724,502.236,430.226,340.60400000000004,375.759,268.798,116.345,27.675,0.0,0.0,0.0,0.0,0.0,0.0,0.0,0.0,0.0,0.0,0.0,19.312,125.389,259.006,368.211,444.166,488.909,502.03199999999987,489.045,446.68199999999996,374.53500000000014,270.634,86.22200000000001,28.219,0.0,0.0,0.0,0.0,0.0,0.0,0.0,0.0,0.0,0.0,0.0,20.127,125.865,249.894,361.48,435.73400000000004,478.64100000000013,491.017,477.281,434.374,245.474,256.558,135.657,30.191000000000006,0.0,0.0,0.0,0.0,0.0,0.0,0.0,0.0,0.0,0.0,0.0,21.215999999999998,126.681,250.71,350.464,419.006,458.037,469.05300000000005,408.806,420.298,351.824,257.374,140.009,30.871,0.0,0.0,0.0,0.0,0.0,0.0,0.0,0.0,0.0,0.0,0.0,21.691,129.469,253.498,361.82,433.42199999999997,473.745,488.093,474.969,331.152,367.32700000000006,265.738,139.805,30.259,0.0,0.0,0.0,0.0,0.0,0.0,0.0,0.0,0.0,0.0,0.0,11.424000000000001,47.803000000000004,154.356,263.97,332.30800000000005,354.68,373.24300000000005,445.186,405.407,339.652,246.766,131.849,29.511,0.0,0.0,0.0,0.0,0.0,0.0,0.0,0.0,0.0,0.0,0.0,22.099,85.95,186.31599999999997,254.79,241.734,418.326,214.26300000000003,405.81400000000014,262.269,240.987,140.689,73.30199999999999,23.594999999999995,0.0,0.0,0.0,0.0,0.0,0.0,0.0,0.0,0.0,0.0,0.0,6.595999999999999,42.431000000000004,202.15900000000002,149.461,291.305,338.7,345.36400000000003,166.05200000000002,162.924,163.196,117.90900000000002,67.11399999999999,19.992,0.0,0.0,0.0,0.0,0.0,0.0,0.0,0.0,0.0,0.0,0.0,23.527000000000005,62.15100000000001,179.312,248.875,164.76,374.94300000000004,397.382,307.421,270.022,177.27200000000002,124.165,63.647,21.08,0.0,0.0,0.0,0.0,0.0,0.0,0.0,0.0,0.0,0.0,0.0,0.68,63.30700000000001,15.027999999999999,23.119,88.806,179.24400000000003,231.262,182.84800000000004,164.488,187.132,151.77200000000002,86.086,24.750999999999998,0.0,0.0,0.0,0.0,0.0,0.0,0.0,0.0,0.0,0.0,0.0,0.0,76.09,80.442,77.11,303.27299999999997,255.878,150.209,191.484,125.04899999999999,109.40899999999999,102.40600000000002,26.043,14.28,0.0,0.0,0.0,0.0,0.0,0.0,0.0,0.0,0.0,0.0,0.0,6.732000000000001,20.671999999999997,51.135,192.232,435.25800000000004,471.22900000000004,484.69300000000004,416.286,436.20999999999987,368.347,262.474,143.477,32.571,0.0,0.0,0.0,0.0,0.0,0.0,0.0,0.0,0.0,0.0,0.0,26.383000000000006,137.289,259.346,353.524,419.006,456.20100000000014,465.789,450.421,411.731,346.316,253.77,138.445,30.871,0.0,0.0,0.0,0.0,0.0,0.0,0.0,0.0,0.0,0.0,0.0,26.247,135.725,255.81,347.608,409.62199999999996,445.185,454.773,442.805,407.44599999999997,345.024,254.382,140.077,31.959,0.0,0.0,0.0,0.0,0.0,0.0,0.0,0.0,0.0,0.0,0.0,28.083000000000002,136.94899999999998,258.394,352.436,417.64599999999996,454.09300000000013,463.81699999999995,470.07300000000004,413.70300000000003,351.62,259.95799999999997,143.273,33.183,0.0,0.0,0.0,0.0,0.0,0.0,0.0,0.0,0.0,0.0,0.0,28.627,136.201,254.99400000000003,346.316,411.66199999999986,446.81699999999995,455.99699999999996,412.13800000000003,405.88199999999995,342.848,251.05000000000004,138.785,33.931,0.0,0.0,0.0,0.0,0.0,0.0,0.0,0.0,0.0,0.0,0.0,28.899,135.453,246.018,355.087,420.706,408.399,471.909,456.541,416.76199999999994,352.98,252.003,139.465,34.135,0.0,0.0,0.0,0.0,0.0,0.0,0.0,0.0,0.0,0.0,0.0,26.383000000000006,114.23700000000001,215.555,308.033,221.267,237.722,409.35,403.163,369.97899999999987,273.217,248.33,122.125,34.883,0.0,0.0,0.0,0.0,0.0,0.0,0.0,0.0,0.0,0.0,0.0,32.027,121.17299999999999,200.32299999999998,274.374,282.806,343.46,382.967,363.451,289.809,167.956,121.71700000000001,87.17399999999999,25.159000000000002,0.0,0.0,0.0,0.0,0.0,0.0,0.0,0.0,0.0,0.0,0.0,7.547999999999999,87.17399999999999,161.632,216.50700000000003,307.624,325.441,364.67500000000007,430.838,390.10700000000014,329.24800000000005,240.714,131.917,36.446999999999996,0.0,0.0,0.0,0.0,0.0,0.0,0.0,0.0,0.0,0.0,0.0,24.206999999999997,76.09,158.164,227.11500000000004,210.795,218.343,326.188,311.501,352.504,284.437,244.25,135.861,37.739000000000004,0.0,0.0,0.0,0.0,0.0,0.0,0.0,0.0,0.0,0.0,0.0,32.775,135.317,253.362,348.42400000000004,325.236,437.366,445.866,431.72199999999987,393.84699999999987,172.852,247.514,136.67700000000002,37.330999999999996,0.0,0.0,0.0,0.0,0.0,0.0,0.0,0.0,0.0,0.0,0.0,31.823,134.093,249.826,205.355,351.212,450.55699999999996,461.71,431.4500000000001,337.272,265.058,199.77900000000002,108.185,28.355,0.0,0.0,0.0,0.0,0.0,0.0,0.0,0.0,0.0,0.0,0.0,19.516,5.167999999999999,73.03,143.817,325.237,221.539,192.98,297.493,300.961,156.736,106.146,75.682,39.439,0.0,0.0,0.0,0.0,0.0,0.0,0.0,0.0,0.0,0.0,0.0,35.427,151.636,281.513,380.79100000000005,448.72100000000006,486.8,494.96,476.73699999999997,435.80199999999996,367.80300000000005,272.13,148.849,39.915,0.0,0.0,0.0,0.0,0.0,0.0,0.0,0.0,0.0,0.0,0.0,35.495,145.857,262.134,354.204,416.082,450.76099999999997,459.941,448.925,408.94300000000004,348.152,257.306,145.517,39.779,0.0,0.0,0.0,0.0,0.0,0.0,0.0,0.0,0.0,0.0,0.0,20.128,143.613,259.006,350.464,414.586,450.08099999999996,459.26099999999997,323.264,411.73,346.452,256.218,144.02100000000002,39.235,0.0,0.0,0.0,0.0,0.0,0.0,0.0,0.0,0.0,0.0,0.0,35.427,138.989,251.05000000000004,339.653,401.12199999999996,435.32599999999996,444.50500000000005,384.531,401.259,82.618,130.013,142.865,41.955,0.0,0.0,0.0,0.0,0.0,0.0,0.0,0.0,0.0,0.0,0.0,37.059,113.625,248.263,335.776,395.819,430.09,381.267,290.285,112.333,302.457,196.243,140.893,42.771,0.0,0.0,0.0,0.0,0.0,0.0,0.0,0.0,0.0,0.0,0.0,36.719,136.541,247.44600000000003,335.708,397.382,432.334,240.986,436.61800000000005,394.39099999999996,334.48400000000004,247.514,120.49299999999998,41.751000000000005,0.0,0.0,0.0,0.0,0.0,0.0,0.0,0.0,0.0,0.0,0.0,36.243,139.261,256.626,349.17199999999997,413.158,449.741,459.94199999999995,448.654,410.914,347.13199999999995,249.75799999999998,143.477,42.091,0.0,0.0,0.0,0.0,0.0,0.0,0.0,0.0,0.0,0.0,0.0,36.650999999999996,137.697,247.65,345.63599999999997,412.54699999999997,448.72100000000006,458.513,445.389,407.379,333.6,246.562,142.185,42.431000000000004,0.0,0.0,0.0,0.0,0.0,0.0,0.0,0.0,0.0,0.0,0.0,22.846999999999998,133.141,225.687,302.661,394.459,397.655,363.92800000000005,401.46300000000014,340.12800000000004,303.613,220.72299999999998,139.941,42.975,0.0,0.0,0.0,0.0,0.0,0.0,0.0,0.0,0.0,0.0,0.0,37.535,116.413,243.706,328.772,387.455,420.026,431.314,420.162,231.87500000000003,270.022,241.054,117.09299999999999,44.81100000000001,0.0,0.0,0.0,0.0,0.0,0.0,0.0,0.0,0.0,0.0,0.0,38.555,133.821,239.491,324.829,385.075,419.414,431.042,418.52999999999986,382.015,281.922,223.30700000000002,106.96200000000002,40.527,0.0,0.0,0.0,0.0,0.0,0.0,0.0,0.0,0.0,0.0,0.0,33.115,136.47299999999998,214.127,279.269,350.6,302.185,314.969,335.436,298.58099999999996,295.725,217.935,85.066,41.683,0.0,0.0,0.0,0.0,0.0,0.0,0.0,0.0,0.0,0.0,0.0,31.687,130.421,211.271,287.973,351.28,380.315,409.75800000000004,382.62699999999995,350.19199999999995,338.36,252.954,147.35299999999998,41.818999999999996,0.0,0.0,0.0,0.0,0.0,0.0,0.0,0.0,0.0,0.0,0.0,34.815,106.757,211.543,286.61400000000003,333.736,364.2,391.671,366.91900000000004,361.82,297.221,196.03900000000002,130.89700000000002,42.567,0.0,0.0,0.0,0.0,0.0,0.0,0.0,0.0,0.0,0.0,0.0,34.883,131.509,189.648,280.358,316.805,272.742,144.905,263.426,330.541,265.806,207.87099999999998,130.08100000000002,43.178999999999995,0.0,0.0,0.0,0.0,0.0,0.0,0.0,0.0,0.0,0.0,0.0,36.039,128.17700000000002,226.503,284.37,349.44300000000004,364.472,395.07,355.904,315.377,252.274,198.963,126.81700000000001,17.204,0.0,0.0,0.0,0.0,0.0,0.0,0.0,0.0,0.0,0.0,0.0,32.911,137.357,244.998,330.26800000000003,389.08699999999993,422.47399999999993,432.13,420.91,386.163,329.588,247.44600000000003,145.109,46.57899999999999,0.0,0.0,0.0,0.0,0.0,0.0,0.0,0.0,0.0,0.0,0.0,33.795,136.541,241.462,326.461,385.483,418.19,203.859,232.418,288.517,325.91700000000003,241.734,142.389,43.247,0.0,0.0,0.0,0.0,0.0,0.0,0.0,0.0,0.0,0.0,0.0,39.575,74.66199999999999,236.15900000000002,319.524,378.412,319.66,298.309,186.588,45.083,151.704,166.937,117.84100000000001,44.131,0.0,0.0,0.0,0.0,0.0,0.0,0.0,0.0,0.0,0.0,0.0,36.379,140.077,252.546,341.556,403.639,439.133,449.674,376.779,406.631,344.276,259.074,152.724,47.12300000000001,0.0,0.0,0.0,0.0,0.0,0.0,0.0,0.0,0.0,0.0,0.0,38.079,135.249,239.69400000000002,323.06,381.675,414.92699999999996,426.486,417.102,383.71499999999986,327.548,179.856,122.66899999999998,48.823,0.0,0.0,0.0,0.0,0.0,0.0,0.0,0.0,0.0,0.0,0.0,37.195,137.017,155.24,328.228,213.37900000000002,424.106,428.52600000000007,327.004,386.29900000000004,328.704,249.35,148.305,48.143,0.0,0.0,0.0,0.0,0.0,0.0,0.0,0.0,0.0,0.0,0.0,37.195,135.589,241.19,326.461,381.60699999999997,312.92900000000003,431.38199999999995,415.74199999999996,382.83099999999996,327.072,245.81400000000002,147.013,49.503,0.0,0.0,0.0,0.0,0.0,0.0,0.0,0.0,0.0,0.0,0.0,38.419000000000004,97.03400000000002,238.743,320.816,378.00300000000004,411.66199999999986,421.726,409.00999999999993,376.235,236.771,167.82,139.805,45.423,0.0,0.0,0.0,0.0,0.0,0.0,0.0,0.0,0.0,0.0,0.0,38.419000000000004,133.549,236.09099999999998,320.341,379.431,225.483,301.097,66.094,363.86,325.508,253.566,150.95600000000002,46.783,0.0,0.0,0.0,0.0,0.0,0.0,0.0,0.0,0.0,0.0,0.0,37.603,134.093,240.51,324.964,385.00699999999995,290.013,435.32599999999996,345.296,164.012,17.476,26.723000000000003,24.683000000000003,14.484000000000002,0.0,0.0,0.0,0.0,0.0,0.0,0.0,0.0,0.0,0.0,0.0,37.603,134.22899999999998,237.518,322.652,382.62699999999995,359.1,186.655,279.269,388.543,327.75199999999995,247.99,127.97299999999998,52.086999999999996,0.0,0.0,0.0,0.0,0.0,0.0,0.0,0.0,0.0,0.0,0.0,21.42,131.305,233.371,257.782,378.955,266.35,167.68400000000003,253.226,323.4,214.127,58.615,3.74,48.21100000000001,0.0,0.0,0.0,0.0,0.0,0.0,0.0,0.0,0.0,0.0,0.0,37.603,132.665,238.13,324.692,379.159,297.765,212.427,313.813,327.88800000000003,328.024,240.57800000000003,63.783,28.967,0.0,0.0,0.0,0.0,0.0,0.0,0.0,0.0,0.0,0.0,0.0,37.535,133.07299999999998,237.178,322.312,382.219,278.997,97.03400000000002,371.95099999999996,337.001,246.222,29.171,51.135,36.991,0.0,0.0,0.0,0.0,0.0,0.0,0.0,0.0,0.0,0.0,0.0,23.187,83.91,70.038,76.226,126.81700000000001,180.467,349.10400000000004,306.265,92.75,17.68,79.014,57.32299999999999,34.543,0.0,0.0,0.0,0.0,0.0,0.0,0.0,0.0,0.0,0.0,0.0,36.583,132.869,237.65400000000002,324.42,377.935,339.04,426.078,413.09,379.431,324.692,251.93400000000003,151.976,49.843,0.47600000000000003,0.0,0.0,0.0,0.0,0.0,0.0,0.0,0.0,0.0,0.0,32.163000000000004,132.869,241.734,330.269,394.32300000000004,314.221,393.371,301.505,354.61199999999997,317.281,255.47,150.48,55.147,0.47600000000000003,0.0,0.0,0.0,0.0,0.0,0.0,0.0,0.0,0.0,0.0,29.919,131.985,235.41,296.813,378.208,365.083,349.784,391.195,269.07,280.969,251.86599999999999,153.2,49.77499999999999,0.544,0.0,0.0,0.0,0.0,0.0,0.0,0.0,0.0,0.0,0.0,35.699,136.813,245.20200000000003,329.92800000000005,352.50300000000004,371.27199999999993,455.31699999999995,440.086,406.087,349.10400000000004,258.05400000000003,157.00799999999998,48.891000000000005,1.02,0.0,0.0,0.0,0.0,0.0,0.0,0.0,0.0,0.0,0.0,31.279,110.497,199.235,289.197,340.332,370.455,391.33099999999996,417.102,382.287,328.296,250.09799999999998,152.18,50.455,0.408,0.0,0.0,0.0,0.0,0.0,0.0,0.0,0.0,0.0,0.0,33.183,122.601,197.80700000000002,190.872,162.04,264.514,361.343,264.513,335.23199999999997,271.11,211.407,52.903,43.315,0.0,0.0,0.0,0.0,0.0,0.0,0.0,0.0,0.0,0.0,0.0,32.163000000000004,101.522,239.762,117.501,43.519,31.891,130.421,245.20200000000003,415.87799999999993,300.621,193.99900000000002,138.241,55.895,1.088,0.0,0.0,0.0,0.0,0.0,0.0,0.0,0.0,0.0,0.0,0.0,30.599,122.53300000000002,187.94799999999998,339.108,393.983,451.3730000000001,375.759,331.49300000000005,181.96400000000003,226.095,117.229,50.251000000000005,0.544,0.0,0.0,0.0,0.0,0.0,0.0,0.0,0.0,0.0,0.0,30.259,130.965,198.895,320.681,378.47900000000004,413.29400000000004,377.32300000000004,358.216,385.89100000000013,326.936,249.486,153.132,51.883,1.02,0.0,0.0,0.0,0.0,0.0,0.0,0.0,0.0,0.0,0.0,35.155,129.673,234.66299999999998,319.797,381.131,419.074,430.36199999999997,253.43,394.051,333.464,241.87,155.988,51.951,1.632,0.0,0.0,0.0,0.0,0.0,0.0,0.0,0.0,0.0,0.0,32.775,129.061,236.295,278.182,212.699,58.285,152.651,320.033,152.651,93.273,84.65799999999999,112.465,12.138,0.0,0.0,0.0,0.0,0.0,0.0,0.0,0.0,0.0,0.0,0.0,22.589000000000002,126.162,51.541000000000004,52.033,56.93899999999999,66.51,170.0,68.406,49.979,124.467,112.74899999999998,109.273,36.855,0.0,0.0,0.0,0.0,0.0,0.0,0.0,0.0,0.0,0.0,0.0,29.239,127.49700000000001,234.11900000000003,311.325,317.30400000000003,90.506,81.054,77.45,144.02100000000002,187.132,199.71099999999998,152.04399999999998,52.35900000000001,0.0,0.0,0.0,0.0,0.0,0.0,0.0,0.0,0.0,0.0,0.0,20.808000000000003,116.821,223.783,320.612,270.77,117.501,315.445,326.188,258.05400000000003,264.85400000000004,128.109,154.28799999999998,29.443,0.0,0.0,0.0,0.0,0.0,0.0,0.0,0.0,0.0,0.0,0.0,36.515,73.30199999999999,188.15200000000002,250.03,14.212,32.775,46.783,100.63799999999999,213.651,320.816,205.967,7.071999999999999,52.971000000000004,0.0,0.0,0.0,0.0,0.0,0.0,0.0,0.0,0.0,0.0,0.0,31.823,126.001,229.766,316.057,374.264,425.602,437.91,409.41899999999987,377.731,279.677,245.95,150.548,58.34300000000001,0.0,0.0,0.0,0.0,0.0,0.0,0.0,0.0,0.0,0.0,0.0,33.523,121.241,220.24700000000004,311.909,377.86699999999996,327.41200000000003,357.399,421.59,385.483,326.596,240.102,147.489,50.523,0.0,0.0,0.0,0.0,0.0,0.0,0.0,0.0,0.0,0.0,0.0,33.047,122.26100000000001,222.355,306.53700000000003,328.36400000000003,376.915,363.316,358.69199999999995,322.177,280.561,216.37099999999998,146.741,55.147,0.0,0.0,0.0,0.0,0.0,0.0,0.0,0.0,0.0,0.0,0.0,31.687,119.881,217.595,299.737,363.58800000000014,304.565,254.11,408.33,62.219,98.32600000000001,110.497,152.86,51.33899999999999,0.0,0.0,0.0,0.0,0.0,0.0,0.0,0.0,0.0,0.0,0.0,31.891,120.49299999999998,219.567,302.185,362.70300000000003,398.879,270.362,253.77,379.431,321.7,245.81400000000002,152.996,58.275,0.408,0.0,0.0,0.0,0.0,0.0,0.0,0.0,0.0,0.0,0.0,30.055,122.39700000000002,225.891,312.317,373.92400000000004,409.418,381.131,360.392,221.063,286.817,228.407,144.089,57.051,0.408,0.0,0.0,0.0,0.0,0.0,0.0,0.0,0.0,0.0,0.0,28.899,116.005,183.05200000000002,277.297,342.644,329.92800000000005,340.19599999999997,247.787,301.64099999999996,254.11,221.947,143.885,19.855999999999998,0.0,0.0,0.0,0.0,0.0,0.0,0.0,0.0,0.0,0.0,0.0,7.344000000000001,38.963,109.273,126.545,258.666,360.8,336.661,334.824,304.42900000000003,233.71099999999998,162.44799999999998,123.89299999999999,47.667,0.0,0.0,0.0,0.0,0.0,0.0,0.0,0.0,0.0,0.0,0.0,29.783,76.09,117.84100000000001,203.995,309.801,312.249,291.577,363.724,359.236,268.934,213.71900000000002,110.497,39.235,0.0,0.0,0.0,0.0,0.0,0.0,0.0,0.0,0.0,0.0,0.0,25.431000000000004,116.277,213.787,297.493,271.654,315.716,137.289,390.37900000000013,346.519,251.662,64.462,28.423000000000002,0.0,0.0,0.0,0.0,0.0,0.0,0.0,0.0,0.0,0.0,0.0,0.0,29.579000000000004,116.413,213.99099999999999,300.077,366.171,225.347,368.211,371.816,237.043,296.134,193.048,128.993,37.059,0.0,0.0,0.0,0.0,0.0,0.0,0.0,0.0,0.0,0.0,0.0,27.811,118.045,222.62700000000004,273.49,317.281,335.028,273.422,259.754,323.264,328.092,222.015,144.769,56.643,0.408,0.0,0.0,0.0,0.0,0.0,0.0,0.0,0.0,0.0,0.0,28.627,116.75299999999999,218.88700000000003,306.197,369.095,406.76599999999996,370.047,416.42199999999997,383.51100000000014,330.336,251.39,153.336,52.01900000000001,0.0,0.0,0.0,0.0,0.0,0.0,0.0,0.0,0.0,0.0,0.0,28.151,116.277,191.28,263.97,245.95,101.182,66.91,164.76,323.944,237.382,195.359,152.316,41.887,0.0,0.0,0.0,0.0,0.0,0.0,0.0,0.0,0.0,0.0,0.0,24.206999999999997,81.93799999999999,222.831,126.749,300.485,298.717,70.31,102.27,195.155,189.44400000000002,151.16,84.25,16.456,0.0,0.0,0.0,0.0,0.0,0.0,0.0,0.0,0.0,0.0,0.0,12.444,86.63,31.415,84.318,101.182,191.96000000000004,200.52700000000002,222.62700000000004,235.275,237.859,29.919,75.274,46.851000000000006,0.0,0.0,0.0,0.0,0.0,0.0,0.0,0.0,0.0,0.0,0.0,9.112,68.882,103.97,173.532,396.83800000000014,333.464,434.782,287.157,180.264,315.10400000000004,256.218,155.308,54.126999999999995,0.0,0.0,0.0,0.0,0.0,0.0,0.0,0.0,0.0,0.0,0.0,22.779000000000003,118.99700000000001,231.94299999999998,333.736,401.46300000000014,176.524,366.716,431.654,396.83800000000014,343.05199999999996,261.318,118.521,49.638999999999996,0.0,0.0,0.0,0.0,0.0,0.0,0.0,0.0,0.0,0.0,0.0,24.750999999999998,117.09299999999999,224.59900000000002,313.677,376.099,413.76999999999987,297.221,420.23,260.434,334.28,252.138,152.792,55.07899999999999,0.0,0.0,0.0,0.0,0.0,0.0,0.0,0.0,0.0,0.0,0.0,26.111,113.965,185.704,278.998,328.704,367.395,416.83,406.76599999999996,187.2,244.658,247.718,150.27700000000002,47.93899999999999,0.0,0.0,0.0,0.0,0.0,0.0,0.0,0.0,0.0,0.0,0.0,25.159000000000002,112.061,214.39900000000003,302.592,365.832,403.435,416.42199999999997,413.022,381.131,327.957,249.826,150.752,53.51500000000001,0.0,0.0,0.0,0.0,0.0,0.0,0.0,0.0,0.0,0.0,0.0,22.439,112.87699999999998,221.267,311.568,278.11400000000003,150.005,433.966,419.074,402.55099999999993,346.92800000000005,264.31,155.988,49.843,0.0,0.0,0.0,0.0,0.0,0.0,0.0,0.0,0.0,0.0,0.0,20.195999999999998,112.40100000000001,206.375,215.75900000000001,100.57,256.626,369.16300000000007,334.348,276.54900000000004,275.122,187.132,126.545,49.367,0.0,0.0,0.0,0.0,0.0,0.0,0.0,0.0,0.0,0.0,0.0,18.836,91.934,190.328,285.593,315.377,368.008,426.75800000000004,357.535,329.249,304.42900000000003,249.486,130.285,46.919,0.0,0.0,0.0,0.0,0.0,0.0,0.0,0.0,0.0,0.0,0.0,19.516,111.993,223.10299999999998,313.132,376.711,414.042,298.377,54.059,186.791,319.72900000000004,263.698,136.609,48.21100000000001,0.0,0.0,0.0,0.0,0.0,0.0,0.0,0.0,0.0,0.0,0.0,21.826999999999998,88.67,183.8,241.25799999999998,331.69599999999997,209.91100000000003,173.396,245.61,272.402,231.942,154.15200000000002,69.63,28.219,0.0,0.0,0.0,0.0,0.0,0.0,0.0,0.0,0.0,0.0,0.0,10.744000000000002,76.294,83.774,88.33,254.11,216.779,221.607,332.98800000000006,313.473,298.853,176.252,73.642,48.075,0.0,0.0,0.0,0.0,0.0,0.0,0.0,0.0,0.0,0.0,0.0,20.264,109.613,161.224,160.952,381.0630000000001,311.841,309.733,423.29,388.543,335.164,177.612,112.80899999999998,15.640000000000002,0.0,0.0,0.0,0.0,0.0,0.0,0.0,0.0,0.0,0.0,0.0,19.855999999999998,109.681,216.983,307.012,370.86300000000006,407.854,421.046,411.459,151.976,333.056,247.65,147.965,48.007,0.0,0.0,0.0,0.0,0.0,0.0,0.0,0.0,0.0,0.0,0.0,18.36,108.525,217.187,306.401,369.29900000000004,406.63,322.449,429.54700000000014,379.431,327.209,248.942,147.761,41.343,0.0,0.0,0.0,0.0,0.0,0.0,0.0,0.0,0.0,0.0,0.0,17.136,85.542,216.64300000000003,307.149,372.088,408.94300000000004,421.99800000000005,412.411,380.315,242.21,246.834,144.429,47.25899999999999,0.0,0.0,0.0,0.0,0.0,0.0,0.0,0.0,0.0,0.0,0.0,10.267999999999999,57.527,185.364,174.416,267.64099999999996,332.716,141.845,130.149,167.68400000000003,287.70099999999996,253.43,147.217,48.143,0.0,0.0,0.0,0.0,0.0,0.0,0.0,0.0,0.0,0.0,0.0,17.816,106.07799999999999,216.71099999999998,309.8,372.0870000000001,325.849,429.546,296.133,227.25100000000003,266.758,248.806,145.108,42.295,0.0,0.0,0.0,0.0,0.0,0.0,0.0,0.0,0.0,0.0,0.0,17.952,106.01,217.187,308.44,372.835,318.233,316.328,201.343,140.621,167.34400000000002,217.391,142.796,45.831,0.0,0.0,0.0,0.0,0.0,0.0,0.0,0.0,0.0,0.0,0.0,18.36,104.58200000000001,212.767,304.565,372.155,410.575,298.717,418.19,270.634,300.077,179.516,86.698,31.075,0.0,0.0,0.0,0.0,0.0,0.0,0.0,0.0,0.0,0.0,0.0,18.02,104.446,213.37900000000002,304.837,369.97899999999987,347.13199999999995,359.779,339.72,308.91700000000003,326.121,243.706,141.91299999999998,44.607,0.0,0.0,0.0,0.0,0.0,0.0,0.0,0.0,0.0,0.0,0.0,15.095999999999998,88.806,198.827,299.601,319.32,352.435,290.557,414.79000000000013,378.47900000000004,322.041,237.38299999999998,130.55700000000002,35.903,0.0,0.0,0.0,0.0,0.0,0.0,0.0,0.0,0.0,0.0,0.0,9.044,79.762,158.572,295.997,364.81199999999995,406.42699999999996,423.63,351.756,362.70300000000003,300.961,192.43599999999998,125.52500000000002,0.0,0.0,0.0,0.0,0.0,0.0,0.0,0.0,0.0,0.0,0.0,0.0,14.008,76.97399999999999,168.77200000000002,242.21,294.841,314.01599999999996,280.221,92.002,155.376,93.77,163.264,138.513,42.771,0.0,0.0,0.0,0.0,0.0,0.0,0.0,0.0,0.0,0.0,0.0,16.592,104.514,217.391,312.52099999999996,379.635,334.07599999999996,332.852,252.47799999999998,396.091,334.68800000000005,250.642,143.749,38.827,0.0,0.0,0.0,0.0,0.0,0.0,0.0,0.0,0.0,0.0,0.0,15.095999999999998,104.17399999999999,218.479,313.20099999999996,262.95,273.013,455.385,441.717,391.671,335.3,252.41,144.293,37.535,0.0,0.0,0.0,0.0,0.0,0.0,0.0,0.0,0.0,0.0,0.0,14.62,102.474,215.623,308.101,373.65100000000007,412.07,427.098,371.74699999999996,305.38,266.894,158.641,119.81299999999999,38.895,0.0,0.0,0.0,0.0,0.0,0.0,0.0,0.0,0.0,0.0,0.0,14.688000000000002,103.426,217.866,311.772,378.41100000000006,416.89800000000014,429.88599999999997,420.094,388.815,331.969,247.78599999999997,140.009,36.855,0.0,0.0,0.0,0.0,0.0,0.0,0.0,0.0,0.0,0.0,0.0,13.804,102.882,218.003,312.997,378.275,416.286,358.555,180.94400000000002,151.43200000000002,335.3,228.882,122.87299999999999,31.143,0.0,0.0,0.0,0.0,0.0,0.0,0.0,0.0,0.0,0.0,0.0,13.668,101.86199999999998,216.915,312.113,378.00300000000004,190.192,403.231,423.97,84.794,85.406,194.203,104.65000000000002,33.387,0.0,0.0,0.0,0.0,0.0,0.0,0.0,0.0,0.0,0.0,0.0,13.124,101.99799999999999,218.343,313.54,393.167,437.366,367.124,281.038,283.145,270.022,106.82600000000001,140.825,33.931,0.0,0.0,0.0,0.0,0.0,0.0,0.0,0.0,0.0,0.0,0.0,13.26,67.52199999999999,87.446,161.904,217.187,282.805,222.21900000000002,153.404,111.313,28.627,128.109,1.02,14.143999999999998,0.0,0.0,0.0,0.0,0.0,0.0,0.0,0.0,0.0,0.0,0.0,4.624,21.555,112.741,123.145,191.00799999999998,209.02700000000002,357.332,238.606,330.81199999999995,139.805,70.378,28.219,8.5,0.0,0.0,0.0,0.0,0.0,0.0,0.0,0.0,0.0,0.0,0.0,9.724,58.955,87.17399999999999,175.50400000000002,306.945,341.216,157.55200000000002,292.461,59.091,332.51199999999994,237.042,90.573,32.503,0.0,0.0,0.0,0.0,0.0,0.0,0.0,0.0,0.0,0.0,0.0,7.956000000000001,68.202,134.909,286.205,371.06699999999995,225.82299999999998,355.767,266.485,239.082,327.20799999999997,231.80599999999998,113.149,25.771,0.0,0.0,0.0,0.0,0.0,0.0,0.0,0.0,0.0,0.0,0.0,11.967999999999998,98.666,213.71900000000002,309.733,377.731,417.102,432.402,140.553,336.25199999999995,324.692,236.63400000000001,108.79700000000001,27.879000000000005,0.0,0.0,0.0,0.0,0.0,0.0,0.0,0.0,0.0,0.0,0.0,11.9,99.34600000000002,217.255,315.921,381.879,312.92900000000003,335.709,208.27900000000002,42.023,76.702,140.825,123.757,28.015,0.0,0.0,0.0,0.0,0.0,0.0,0.0,0.0,0.0,0.0,0.0,4.012,41.615,130.69299999999998,145.65200000000002,71.398,36.243,65.618,94.314,122.193,121.51299999999999,134.297,120.15300000000002,26.791,0.0,0.0,0.0,0.0,0.0,0.0,0.0,0.0,0.0,0.0,0.0,10.948,47.803000000000004,128.857,203.248,255.53800000000004,304.42900000000003,277.842,132.733,232.96200000000002,205.695,146.265,73.642,16.116,0.0,0.0,0.0,0.0,0.0,0.0,0.0,0.0,0.0,0.0,0.0,2.8560000000000003,57.731,133.957,142.525,79.83,189.71600000000004,186.248,261.79400000000004,270.225,311.025,194.203,99.75399999999999,14.484000000000002,0.0,0.0,0.0,0.0,0.0,0.0,0.0,0.0,0.0,0.0,0.0,9.384,65.618,152.656,203.315,276.006,286.069,371.204,351.48400000000004,324.89599999999996,285.457,193.59099999999998,82.822,17.272000000000002,0.0,0.0,0.0,0.0,0.0,0.0,0.0,0.0,0.0,0.0,0.0,10.404000000000002,100.774,224.25900000000001,327.14,398.878,440.69699999999995,379.907,363.995,403.911,287.905,237.99400000000003,111.993,22.506999999999998,0.0,0.0,0.0,0.0,0.0,0.0,0.0,0.0,0.0,0.0,0.0,9.52,97.57799999999999,215.963,315.241,218.88700000000003,428.32199999999995,321.497,357.536,387.727,240.37400000000002,31.619,81.19,21.895,0.0,0.0,0.0,0.0,0.0,0.0,0.0,0.0,0.0,0.0,0.0,8.296,96.15,172.78400000000002,309.869,376.03100000000006,207.87099999999998,120.28900000000002,266.758,384.735,318.505,229.563,48.61900000000001,21.487,0.0,0.0,0.0,0.0,0.0,0.0,0.0,0.0,0.0,0.0,0.0,7.344000000000001,95.674,210.863,315.785,387.65900000000005,429.07000000000005,444.43800000000005,433.55800000000005,395.00300000000004,318.437,227.455,115.869,20.128,0.0,0.0,0.0,0.0,0.0,0.0,0.0,0.0,0.0,0.0,0.0,0.0,0.544,150.345,245.61,357.059,395.41,410.098,395.88599999999997,308.237,213.923,127.429,59.295,15.027999999999999,0.0,0.0,0.0,0.0,0.0,0.0,0.0,0.0,0.0,0.0,0.0,4.828,88.94200000000001,195.63099999999997,291.71299999999997,208.82299999999998,317.553,284.505,409.69,366.98800000000006,304.157,217.255,109.40899999999999,18.292,0.0,0.0,0.0,0.0,0.0,0.0,0.0,0.0,0.0,0.0,0.0,7.412000000000001,91.866,206.919,303.612,367.26,342.30400000000003,421.79400000000004,407.583,372.427,309.461,219.907,110.021,17.952,0.0,0.0,0.0,0.0,0.0,0.0,0.0,0.0,0.0,0.0,0.0,7.344000000000001,93.634,209.02700000000002,306.877,375.284,313.60900000000004,262.61,353.524,377.119,310.276,218.955,91.662,17.272000000000002,0.0,0.0,0.0,0.0,0.0,0.0,0.0,0.0,0.0,0.0,0.0,6.8,92.41,207.668,305.381,373.787,412.478,225.00700000000003,416.082,373.719,55.283,226.571,109.546,15.98,0.0,0.0,0.0,0.0,0.0,0.0,0.0,0.0,0.0,0.0,0.0,6.256000000000001,92.274,209.02700000000002,245.95,302.32099999999997,227.93099999999998,333.464,301.165,304.633,312.249,218.071,106.07799999999999,13.328,0.0,0.0,0.0,0.0,0.0,0.0,0.0,0.0,0.0,0.0,0.0,6.528,79.014,170.268,262.61,176.388,257.238,249.75799999999998,321.496,164.352,101.99799999999999,119.26899999999999,54.195,6.0520000000000005,0.0,0.0,0.0,0.0,0.0,0.0,0.0,0.0,0.0,0.0,0.0,6.256000000000001,82.89,183.868,227.25100000000003,306.129,129.537,47.803000000000004,107.641,273.422,252.81799999999998,116.073,69.426,6.120000000000001,0.0,0.0,0.0,0.0,0.0,0.0,0.0,0.0,0.0,0.0,0.0,4.352,89.486,153.744,195.291,280.017,312.724,191.348,57.458999999999996,66.434,195.97099999999998,142.72899999999998,14.824000000000002,0.0,0.0,0.0,0.0,0.0,0.0,0.0,0.0,0.0,0.0,0.0,0.0,0.0,0.612,19.448,151.024,135.113,207.327,242.89,331.49300000000005,318.436,245.61,165.71200000000002,69.69800000000001,7.14,0.0,0.0,0.0,0.0,0.0,0.0,0.0,0.0,0.0,0.0,0.0,2.8560000000000003,36.583,178.972,262.134,250.50599999999997,265.194,259.142,203.247,97.10200000000002,124.369,75.954,60.315,3.332,0.0,0.0,0.0,0.0,0.0,0.0,0.0,0.0,0.0,0.0,0.0,0.0,0.0,60.79099999999999,21.148000000000003,122.601,27.879000000000005,47.667,308.849,302.933,285.865,180.672,96.422,8.568,0.0,0.0,0.0,0.0,0.0,0.0,0.0,0.0,0.0,0.0,0.0,0.612,62.015,175.572,224.93900000000002,296.065,253.63400000000001,355.088,269.75,256.762,223.783,186.452,45.559,1.632,0.0,0.0,0.0,0.0,0.0,0.0,0.0,0.0,0.0,0.0,0.0,1.8360000000000003,85.066,201.683,251.79800000000003,258.598,194.067,240.918,238.19800000000004,261.182,233.235,118.793,76.97399999999999,2.72,0.0,0.0,0.0,0.0,0.0,0.0,0.0,0.0,0.0,0.0,0.0,0.0,0.0,49.435,73.71,188.628,229.63100000000003,280.426,312.384,234.86700000000002,310.616,24.206999999999997,15.164000000000001,0.0,0.0,0.0,0.0,0.0,0.0,0.0,0.0,0.0,0.0,0.0,0.0,2.9239999999999995,87.038,88.398,309.257,373.379,410.30300000000005,421.18199999999996,296.813,367.667,208.82299999999998,149.325,64.055,3.944,0.0,0.0,0.0,0.0,0.0,0.0,0.0,0.0,0.0,0.0,0.0,2.244,86.902,204.335,300.893,357.264,321.7,412.07,392.283,354.54400000000004,165.78,165.71200000000002,71.194,1.9040000000000001,0.0,0.0,0.0,0.0,0.0,0.0,0.0,0.0,0.0,0.0,0.0,0.816,85.066,201.139,297.086,363.79199999999986,401.05400000000003,308.441,203.995,128.653,189.648,196.17500000000004,83.29799999999999,1.8360000000000003,0.0,0.0,0.0,0.0,0.0,0.0,0.0,0.0,0.0,0.0,0.0,0.0,84.454,202.704,301.709,371.135,255.334,317.008,26.383000000000006,7.48,108.865,110.15700000000001,33.727,0.0,0.0,0.0,0.0,0.0,0.0,0.0,0.0,0.0,0.0,0.0,0.0,0.0,80.578,117.229,173.6,375.42,305.245,162.108,161.36,155.444,231.399,111.449,57.051,0.0,0.0,0.0,0.0,0.0,0.0,0.0,0.0,0.0,0.0,0.0,0.0,0.0,78.334,0.47600000000000003,318.777,298.58099999999996,33.183,110.36100000000002,216.031,186.452,196.855,147.55700000000002,6.528,0.0,0.0,0.0,0.0,0.0,0.0,0.0,0.0,0.0,0.0,0.0,0.0,0.0,95.334,225.279,327.41200000000003,411.866,453.07300000000004,464.225,447.973,401.59800000000007,324.693,210.93099999999998,86.154,0.0,0.0,0.0,0.0,0.0,0.0,0.0,0.0,0.0,0.0,0.0,0.0,0.0,93.226,222.62700000000004,324.285,390.787,429.274,438.657,419.754,376.57599999999996,306.4,203.451,81.53,0.0,0.0,0.0,0.0,0.0,0.0,0.0,0.0,0.0,0.0,0.0,0.0,0.0,86.902,207.939,314.9,371.475,407.379,362.56800000000004,345.5,262.746,210.183,164.828,71.67,0.0,0.0,0.0,0.0,0.0,0.0,0.0,0.0,0.0,0.0,0.0,0.0,0.0,81.19,198.963,304.565,376.50699999999995,401.394,410.778,392.215,348.9,279.745,181.692,69.97,0.0,0.0,0.0,0.0,0.0,0.0,0.0,0.0,0.0,0.0,0.0,0.0,0.0,79.96600000000001,198.96400000000003,296.814,363.995,399.14999999999986,409.07800000000003,177.88400000000001,313.677,185.22800000000004,180.53599999999997,63.986999999999995,0.0,0.0,0.0,0.0,0.0,0.0,0.0,0.0,0.0,0.0,0.0,0.0,0.0,78.334,133.957,295.793,362.83900000000006,271.11,332.921,286.205,317.688,146.945,147.625,63.57899999999999,0.0,0.0,0.0,0.0,0.0,0.0,0.0,0.0,0.0,0.0,0.0,0.0,0.0,86.698,213.31099999999998,314.425,385.14300000000003,423.902,433.89800000000014,431.586,385.415,309.053,196.107,73.098,0.0,0.0,0.0,0.0,0.0,0.0,0.0,0.0,0.0,0.0,0.0,0.0,0.0,90.098,219.83900000000003,322.381,393.303,431.79,440.425,421.11400000000003,375.895,302.661,196.311,54.331,0.0,0.0,0.0,0.0,0.0,0.0,0.0,0.0,0.0,0.0,0.0,0.0,0.0,86.834,212.699,313.20099999999996,390.991,430.566,439.405,417.44200000000006,371.54300000000006,294.705,187.2,64.938,0.0,0.0,0.0,0.0,0.0,0.0,0.0,0.0,0.0,0.0,0.0,0.0,0.0,84.318,126.545,319.593,390.37800000000004,446.273,457.629,437.77400000000006,392.283,311.84,193.727,68.74600000000001,0.0,0.0,0.0,0.0,0.0,0.0,0.0,0.0,0.0,0.0,0.0,0.0,0.0,87.038,216.847,319.66,387.115,425.602,433.76199999999994,413.974,368.14299999999986,292.189,186.18,64.53,0.0,0.0,0.0,0.0,0.0,0.0,0.0,0.0,0.0,0.0,0.0,0.0,0.0,50.86300000000001,124.165,164.62400000000002,289.945,324.14799999999997,269.818,262.066,271.381,216.983,138.921,45.559,0.0,0.0,0.0,0.0,0.0,0.0,0.0,0.0,0.0,0.0,0.0,0.0,0.0,73.234,78.13,296.813,177.952,423.358,300.41700000000003,273.35400000000004,370.25099999999986,288.653,175.09599999999998,56.711000000000006,0.0,0.0,0.0,0.0,0.0,0.0,0.0,0.0,0.0,0.0,0.0,0.0,0.0,41.547,112.537,141.30100000000002,187.132,125.93299999999999,124.845,169.18,145.585,141.57299999999998,48.55100000000001,25.295,0.0,0.0,0.0,0.0,0.0,0.0,0.0,0.0,0.0,0.0,0.0,0.0,0.0,24.275,38.079,86.22200000000001,201.615,250.574,318.028,345.63599999999997,263.426,224.25900000000001,117.43299999999999,41.207,0.0,0.0,0.0,0.0,0.0,0.0,0.0,0.0,0.0,0.0,0.0,0.0,0.0,53.99100000000001,105.194,202.49900000000002,273.558,211.88299999999998,288.381,277.70599999999996,175.98,155.24,93.43,29.443,0.0,0.0,0.0,0.0,0.0,0.0,0.0,0.0,0.0,0.0,0.0,0.0,0.0,73.982,195.699,295.861,363.18,400.03399999999993,77.858,117.09299999999999,352.64,269.682,165.44,49.095,0.0,0.0,0.0,0.0,0.0,0.0,0.0,0.0,0.0,0.0,0.0,0.0,0.0,74.594,197.05900000000003,298.03700000000003,364.064,400.579,407.855,388.543,262.134,264.85400000000004,157.144,45.219,0.0,0.0,0.0,0.0,0.0,0.0,0.0,0.0,0.0,0.0,0.0,0.0,0.0,62.96700000000001,172.92,230.855,210.387,262.814,179.312,237.65400000000002,175.43599999999998,129.469,104.514,46.783,0.0,0.0,0.0,0.0,0.0,0.0,0.0,0.0,0.0,0.0,0.0,0.0,0.0,11.492,57.187,114.23700000000001,321.972,415.606,421.522,400.71400000000006,353.592,273.76099999999997,165.84799999999998,46.715,0.0,0.0,0.0,0.0,0.0,0.0,0.0,0.0,0.0,0.0,0.0,0.0,0.0,3.0600000000000005,94.654,180.876,374.94400000000013,329.045,330.608,399.967,347.81199999999995,267.642,158.98,43.043,0.0,0.0,0.0,0.0,0.0,0.0,0.0,0.0,0.0,0.0,0.0,0.0,0.0,71.194,196.03900000000002,298.921,367.735,400.57800000000003,403.57,390.311,332.785,250.03,145.721,36.923,0.0,0.0,0.0,0.0,0.0,0.0,0.0,0.0,0.0,0.0,0.0,0.0,0.0,69.494,191.82400000000004,291.645,359.44,396.431,403.57099999999997,384.327,335.64,256.014,148.849,37.806999999999995,0.0,0.0,0.0,0.0,0.0,0.0,0.0,0.0,0.0,0.0,0.0,0.0,0.0,67.38600000000001,188.084,297.493,371.06699999999995,410.847,418.666,398.60699999999997,188.083,267.64099999999996,150.888,37.739000000000004,0.0,0.0,0.0,0.0,0.0,0.0,0.0,0.0,0.0,0.0,0.0,0.0,0.0,66.91,188.968,298.377,373.311,397.111,404.18300000000005,306.605,229.35900000000004,224.25900000000001,114.169,30.055,0.0,0.0,0.0,0.0,0.0,0.0,0.0,0.0,0.0,0.0,0.0,0.0,0.0,57.187,173.736,289.809,341.01199999999994,339.04,332.852,383.71499999999986,246.90200000000002,253.02200000000002,96.286,28.491,0.0,0.0,0.0,0.0,0.0,0.0,0.0,0.0,0.0,0.0,0.0,0.0,0.0,73.574,209.843,322.041,398.811,423.97,431.042,340.19599999999997,358.42,273.762,160.34,38.147,0.0,0.0,0.0,0.0,0.0,0.0,0.0,0.0,0.0,0.0,0.0,0.0,0.0,24.546999999999997,30.327000000000005,180.672,177.88400000000001,255.606,417.44200000000006,392.48700000000014,342.78,261.93,150.752,34.679,0.0,0.0,0.0,0.0,0.0,0.0,0.0,0.0,0.0,0.0,0.0,0.0,0.0,66.774,193.387,241.666,334.55199999999996,374.059,352.096,254.11,120.765,139.39700000000002,30.803,8.568,0.0,0.0,0.0,0.0,0.0,0.0,0.0,0.0,0.0,0.0,0.0,0.0,0.0,67.046,195.087,301.097,369.84400000000005,407.854,415.06200000000007,394.459,344.548,263.63,152.656,34.543,0.0,0.0,0.0,0.0,0.0,0.0,0.0,0.0,0.0,0.0,0.0,0.0,0.0,70.718,204.063,310.41200000000003,390.44699999999995,426.214,432.26599999999996,410.914,351.144,254.926,143.205,30.395,0.0,0.0,0.0,0.0,0.0,0.0,0.0,0.0,0.0,0.0,0.0,0.0,0.0,67.182,196.855,303.205,385.14300000000003,425.806,433.217,408.806,355.291,269.342,149.461,33.115,0.0,0.0,0.0,0.0,0.0,0.0,0.0,0.0,0.0,0.0,0.0,0.0,0.0,35.155,64.734,301.165,375.963,415.33400000000006,422.27,399.695,346.04400000000004,254.11,142.797,29.783,0.0,0.0,0.0,0.0,0.0,0.0,0.0,0.0,0.0,0.0,0.0,0.0,0.0,62.355,188.9,291.16900000000004,368.89099999999996,393.371,131.985,385.755,325.032,164.42,132.393,24.546999999999997,0.0,0.0,0.0,0.0,0.0,0.0,0.0,0.0,0.0,0.0,0.0,0.0,0.0,59.703,186.111,291.849,366.23900000000003,405.135,411.866,387.931,337.13599999999997,243.094,135.52100000000002,26.383000000000006,0.0,0.0,0.0,0.0,0.0,0.0,0.0,0.0,0.0,0.0,0.0,0.0,0.0,56.711000000000006,181.69099999999997,286.409,359.847,258.05400000000003,204.199,299.805,208.61900000000003,235.683,94.314,13.124,0.0,0.0,0.0,0.0,0.0,0.0,0.0,0.0,0.0,0.0,0.0,0.0,0.0,55.283,180.128,227.59099999999998,366.98699999999997,404.999,412.68200000000013,388.74699999999996,335.912,252.546,138.309,25.566999999999997,0.0,0.0,0.0,0.0,0.0,0.0,0.0,0.0,0.0,0.0,0.0,0.0,0.0,31.891,107.845,185.908,227.795,285.933,339.108,309.733,263.222,184.616,54.331,6.324,0.0,0.0,0.0,0.0,0.0,0.0,0.0,0.0,0.0,0.0,0.0,0.0,0.0,3.8080000000000003,43.043,59.295,112.537,129.741,129.605,129.877,91.866,60.927,32.571,25.566999999999997,0.0,0.0,0.0,0.0,0.0,0.0,0.0,0.0,0.0,0.0,0.0,0.0,0.0,61.81100000000001,201.139,325.98400000000004,407.855,453.48100000000005,462.865,436.55,374.26300000000003,278.998,148.849,27.539,0.0,0.0,0.0,0.0,0.0,0.0,0.0,0.0,0.0,0.0,0.0,0.0,0.0,61.335,203.179,325.236,406.76700000000005,450.76199999999994,458.853,431.654,369.775,275.73400000000004,145.789,25.839,0.0,0.0,0.0,0.0,0.0,0.0,0.0,0.0,0.0,0.0,0.0,0.0,0.0,55.283,185.22800000000004,299.057,374.19500000000005,411.798,419.48199999999997,399.219,341.284,253.77,130.08100000000002,18.904,0.0,0.0,0.0,0.0,0.0,0.0,0.0,0.0,0.0,0.0,0.0,0.0,0.0,7.48,162.584,67.52199999999999,363.11199999999997,403.29900000000004,414.314,397.654,340.468,249.283,128.381,19.516,0.0,0.0,0.0,0.0,0.0,0.0,0.0,0.0,0.0,0.0,0.0,0.0,0.0,48.21100000000001,171.696,277.433,357.059,404.455,409.55400000000003,384.80300000000005,327.073,239.69400000000002,122.73699999999998,16.592,0.0,0.0,0.0,0.0,0.0,0.0,0.0,0.0,0.0,0.0,0.0,0.0,0.0,45.96700000000001,165.916,270.158,339.51599999999996,377.39099999999996,382.62699999999995,361.616,310.684,228.611,119.677,15.640000000000002,0.0,0.0,0.0,0.0,0.0,0.0,0.0,0.0,0.0,0.0,0.0,0.0,0.0,45.49100000000001,164.28400000000002,268.118,348.62800000000004,387.523,395.615,162.65200000000002,113.149,227.659,113.693,9.18,0.0,0.0,0.0,0.0,0.0,0.0,0.0,0.0,0.0,0.0,0.0,0.0,0.0,46.103,174.21099999999998,288.246,365.967,394.934,401.939,377.936,324.624,236.974,121.785,15.095999999999998,0.0,0.0,0.0,0.0,0.0,0.0,0.0,0.0,0.0,0.0,0.0,0.0,0.0,40.663000000000004,160.136,269.817,234.731,256.49,403.09400000000005,252.546,338.7,238.674,122.805,15.436,0.0,0.0,0.0,0.0,0.0,0.0,0.0,0.0,0.0,0.0,0.0,0.0,0.0,42.431000000000004,165.576,283.621,234.595,411.934,297.289,302.593,344.208,173.12400000000002,125.661,14.075999999999999,0.0,0.0,0.0,0.0,0.0,0.0,0.0,0.0,0.0,0.0,0.0,0.0,0.0,46.57899999999999,176.11599999999999,287.973,362.092,403.026,410.642,387.523,332.784,245.74599999999998,126.137,15.708,0.0,0.0,0.0,0.0,0.0,0.0,0.0,0.0,0.0,0.0,0.0,0.0,0.0,47.599,179.24400000000003,289.265,362.83900000000006,401.871,409.14599999999996,383.851,327.48,210.659,109.273,13.6,0.0,0.0,0.0,0.0,0.0,0.0,0.0,0.0,0.0,0.0,0.0,0.0,0.0,44.879,172.03599999999997,281.786,352.98,392.351,399.14999999999986,377.18800000000005,322.992,236.90599999999998,120.561,12.58,0.0,0.0,0.0,0.0,0.0,0.0,0.0,0.0,0.0,0.0,0.0,0.0,0.0,40.663000000000004,164.42,274.442,349.10400000000004,388.88300000000004,395.95499999999987,286.817,157.21200000000002,157.28,109.95299999999999,8.704,0.0,0.0,0.0,0.0,0.0,0.0,0.0,0.0,0.0,0.0,0.0,0.0,0.0,17.612000000000002,130.285,210.659,273.422,253.362,243.91,231.671,176.72799999999998,131.101,42.703,0.068,0.0,0.0,0.0,0.0,0.0,0.0,0.0,0.0,0.0,0.0,0.0,0.0,0.0,33.931,68.27,170.812,271.314,373.44699999999995,263.561,264.514,306.741,131.645,110.837,8.908,0.0,0.0,0.0,0.0,0.0,0.0,0.0,0.0,0.0,0.0,0.0,0.0,0.0,3.74,20.332,46.17100000000001,111.925,117.97700000000002,149.461,205.559,138.377,98.258,7.6160000000000005,0.0,0.0,0.0,0.0,0.0,0.0,0.0,0.0,0.0,0.0,0.0,0.0,0.0,0.0,32.435,151.773,68.542,167.412,159.32,92.81799999999998,83.63799999999999,60.586999999999996,43.927,114.305,6.256000000000001,0.0,0.0,0.0,0.0,0.0,0.0,0.0,0.0,0.0,0.0,0.0,0.0,0.0,0.0,14.143999999999998,79.354,148.849,203.655,169.18,109.95299999999999,104.65000000000002,75.954,30.666999999999998,0.0,0.0,0.0,0.0,0.0,0.0,0.0,0.0,0.0,0.0,0.0,0.0,0.0,0.0,31.346999999999998,150.95600000000002,265.806,152.248,394.459,257.782,168.5,114.91700000000002,231.80700000000002,5.372000000000001,0.0,0.0,0.0,0.0,0.0,0.0,0.0,0.0,0.0,0.0,0.0,0.0,0.0,0.0,32.775,152.316,265.33,344.412,386.231,396.023,372.495,316.329,230.243,110.225,0.0,0.0,0.0,0.0,0.0,0.0,0.0,0.0,0.0,0.0,0.0,0.0,0.0,0.0,33.455,153.404,269.274,344.344,384.939,348.01599999999996,240.986,285.457,196.71900000000002,95.81,0.0,0.0,0.0,0.0,0.0,0.0,0.0,0.0,0.0,0.0,0.0,0.0,0.0,0.0,30.666999999999998,26.383000000000006,59.771,146.877,177.88400000000001,225.143,258.73400000000004,250.91400000000002,116.141,19.448,0.0,0.0,
...